%chk=1.chk
%nprocshared=1
%mem=10GB
#P opt(nomicro) freq external='xtb-gaussian -P 9 --gbsa h2o --input 1.fix --verbose' 

model

-1 1
   C     -1           -8.930  -13.239  -17.543
   C      0           -9.408  -12.554  -16.255
   O      0           -8.787  -11.589  -15.791
   C     -1           -7.996  -12.329  -18.349
   C      0           -8.655  -11.094  -18.944
   S      0           -7.541  -10.158  -20.015
   C      0           -8.674   -8.922  -20.582
   H      0           -9.775  -13.481  -18.187
   H      0           -8.440  -14.024  -17.253
   H      0           -7.268  -12.045  -17.774
   H      0           -7.603  -12.848  -19.069
   H      0           -9.437  -11.362  -19.452
   H      0           -8.966  -10.520  -18.226
   H      0           -8.183   -8.207  -21.016
   H      0           -9.295   -9.317  -21.214
   H      0           -9.166   -8.563  -19.827
   N      0          -10.501  -13.057  -15.685
   C     -1          -10.933  -12.637  -14.344
   H      0          -11.962  -12.956  -14.178
   H      0          -10.286  -13.092  -13.594
   H      0          -10.873  -11.551  -14.266
   H      0          -11.010  -13.643  -16.055
   C     -1           -8.280   -2.946  -15.180
   C      0           -9.523   -3.621  -14.645
   O      0           -9.435   -4.437  -13.728
   H      0           -8.007   -2.139  -14.500
   H      0           -8.451   -2.606  -16.072
   H      0           -7.563   -3.595  -15.256
   N      0          -10.682   -3.296  -15.222
   C     -1          -11.980   -3.800  -14.708
   C      0          -12.525   -5.013  -15.453
   O      0          -13.198   -5.865  -14.862
   H      0          -12.703   -2.997  -14.851
   H      0          -11.850   -4.073  -13.661
   H      0          -10.748   -2.786  -15.911
   N      0          -12.266   -5.051  -16.757
   C     -1          -12.745   -6.103  -17.654
   C     -1          -11.918   -7.374  -17.430
   C      0          -12.103   -8.445  -18.478
   C      0          -12.031   -8.145  -19.836
   C      0          -12.343   -9.755  -18.116
   C      0          -12.219   -9.119  -20.798
   C      0          -12.528  -10.728  -19.062
   C      0          -12.465  -10.410  -20.407
   O      0          -12.623  -11.405  -21.353
   H      0          -13.801   -6.290  -17.458
   H      0          -11.795   -4.452  -17.156
   H      0          -12.606   -5.823  -18.572
   H      0          -10.979   -7.132  -17.396
   H      0          -12.147   -7.745  -16.563
   H      0          -11.853   -7.271  -20.101
   H      0          -12.380   -9.981  -17.215
   H      0          -12.179   -8.901  -21.701
   H      0          -12.696  -11.604  -18.800
   H      0          -13.115  -11.126  -21.974
   C     -1          -15.597   -9.746  -11.521
   C      0          -14.928   -9.301  -10.227
   O      0          -15.504   -9.438   -9.129
   H      0          -16.497   -9.154  -11.686
   H      0          -14.909   -9.602  -12.354
   H      0          -15.865  -10.800  -11.448
   N      0          -13.723   -8.753  -10.365
   C     -1          -12.940   -8.327   -9.215
   C      0          -11.472   -8.087   -9.592
   O      0          -11.320   -6.943  -10.415
   H      0          -13.356   -7.397   -8.826
   H      0          -13.341   -8.619  -11.124
   H      0          -12.964   -9.048   -8.567
   H      0          -10.945   -7.977   -8.785
   H      0          -11.125   -8.866  -10.054
   H      0          -11.057   -6.295   -9.949
   C     -1          -10.901    0.687  -17.567
   C      0          -10.799    1.453  -18.880
   O      0          -11.569    2.383  -19.134
   C     -1          -12.195   -0.127  -17.535
   C      0          -12.445   -0.963  -18.771
   C      0          -11.331   -1.965  -19.042
   O      0          -11.000   -2.750  -18.121
   O      0          -10.795   -1.964  -20.183
   H      0          -10.899    1.394  -16.738
   H      0          -10.147    0.082  -17.495
   H      0          -12.176   -0.712  -16.762
   H      0          -12.942    0.480  -17.413
   H      0          -13.284   -1.439  -18.670
   H      0          -12.541   -0.377  -19.538
   N      0           -9.860    1.037  -19.719
   C     -1           -9.525    1.761  -20.937
   C      0           -8.063    1.469  -21.363
   C      0           -7.567    2.498  -22.389
   C      0           -7.895    0.021  -21.871
   C      0           -6.120    2.256  -22.812
   H      0          -10.202    1.449  -21.733
   H      0           -9.397    0.323  -19.597
   H      0           -9.598    2.711  -20.755
   H      0           -7.505    1.556  -20.574
   H      0           -8.138    2.470  -23.172
   H      0           -7.646    3.389  -22.013
   H      0           -6.971   -0.127  -22.128
   H      0           -8.137   -0.600  -21.166
   H      0           -8.471   -0.122  -22.639
   H      0           -5.855    2.929  -23.458
   H      0           -5.542    2.309  -22.035
   H      0           -6.043    1.376  -23.212
   C     -1           -6.276    4.809  -19.403
   C      0           -5.865    5.179  -17.975
   O      0           -6.041    6.313  -17.531
   H      0           -7.127    5.419  -19.705
   H      0           -5.441    4.990  -20.080
   H      0           -6.554    3.756  -19.440
   N      0           -5.291    4.209  -17.271
   C     -1           -4.772    4.411  -15.932
   C      0           -4.121    3.117  -15.432
   O      0           -3.246    2.560  -16.396
   H      0           -4.035    5.214  -15.946
   H      0           -5.193    3.407  -17.565
   H      0           -5.507    4.636  -15.340
   H      0           -3.630    3.297  -14.615
   H      0           -4.811    2.472  -15.211
   H      0           -2.559    2.264  -16.014
   C     -1           -4.605   -6.139  -12.908
   C      0           -4.930   -5.769  -14.362
   O      0           -5.843   -6.314  -14.973
   C      0           -5.772   -6.876  -12.259
   C      0           -5.980   -8.244  -12.819
   O      0           -5.010   -8.831  -13.329
   O      0           -7.119   -8.745  -12.743
   H      0           -4.416   -5.240  -12.321
   H      0           -3.829   -6.721  -12.935
   H      0           -5.615   -6.943  -11.304
   H      0           -6.583   -6.356  -12.378
   N      0           -4.149   -4.855  -14.912
   C     -1           -4.320   -4.392  -16.284
   C      0           -3.138   -4.944  -17.084
   O      0           -2.590   -5.961  -16.682
   C      0           -4.522   -2.857  -16.347
   C      0           -3.477   -2.042  -15.644
   C      0           -3.052   -0.773  -15.869
   N      0           -2.785   -2.482  -14.532
   C      0           -1.952   -1.535  -14.131
   N      0           -2.096   -0.489  -14.927
   H      0           -3.496   -4.479  -14.497
   H      0           -5.135   -4.727  -16.689
   H      0           -4.549   -2.587  -17.278
   H      0           -5.388   -2.644  -15.965
   H      0           -3.353   -0.202  -16.538
   H      0           -1.365   -1.595  -13.412
   H      0           -1.661    0.250  -14.864
   N      0           -2.754   -4.342  -18.208
   C     -1           -1.622   -4.865  -18.968
   C      0           -0.335   -4.723  -18.131
   O      0           -0.070   -3.677  -17.529
   C     -1           -1.457   -4.167  -20.328
   C      0           -2.616   -4.288  -21.361
   C      0           -2.829   -3.448  -22.425
   C      0           -3.674   -5.280  -21.427
   C      0           -4.474   -4.961  -22.553
   C      0           -4.038   -6.379  -20.633
   N      0           -3.939   -3.840  -23.132
   C      0           -5.612   -5.710  -22.915
   C      0           -5.163   -7.150  -21.012
   C      0           -5.940   -6.796  -22.137
   H      0           -3.127   -3.643  -18.542
   H      0           -1.795   -5.801  -19.153
   H      0           -1.306   -3.224  -20.161
   H      0           -0.652   -4.514  -20.744
   H      0           -2.296   -2.716  -22.637
   H      0           -4.250   -3.444  -23.829
   H      0           -3.549   -6.596  -19.872
   H      0           -6.124   -5.478  -23.656
   H      0           -5.394   -7.900  -20.513
   H      0           -6.686   -7.306  -22.356
   N      0            0.458   -5.789  -18.097
   C     -1            1.523   -5.924  -17.107
   C     -1            2.059   -7.363  -17.109
   C      0            0.950   -8.457  -17.048
   C      0           -0.164   -8.160  -16.006
   C      0           -1.418   -9.004  -16.211
   N      0           -2.600   -8.511  -15.392
   H      0            1.126   -5.691  -16.119
   H      0            2.333   -5.236  -17.350
   H      0            0.395   -6.451  -18.643
   H      0            2.590   -7.499  -17.909
   H      0            2.654   -7.477  -16.351
   H      0            0.546   -8.546  -17.925
   H      0            1.360   -9.310  -16.837
   H      0            0.184   -8.319  -15.115
   H      0           -0.402   -7.221  -16.054
   H      0           -1.656   -8.998  -17.151
   H      0           -1.226   -9.924  -15.973
   H      0           -3.155   -9.188  -15.235
   H      0           -2.309   -8.181  -14.619
   H      0           -3.029   -7.875  -15.843
   C     -1           -2.177  -10.000   -9.944
   C      0           -1.109  -10.365  -10.975
   O      0           -0.415   -9.487  -11.480
   C      0           -3.563  -10.062  -10.585
   C      0           -4.006  -11.485  -10.885
   O      0           -3.490  -12.427  -10.257
   O      0           -4.879  -11.657  -11.748
   H      0           -2.131  -10.702   -9.112
   H      0           -1.995   -8.988   -9.582
   H      0           -4.208   -9.644   -9.993
   H      0           -3.558   -9.548  -11.408
   N      0           -0.965  -11.662  -11.245
   C     -1           -0.186  -12.153  -12.386
   C      0           -0.718  -11.567  -13.698
   C      0           -2.161  -11.806  -13.889
   N      0           -2.556  -13.072  -13.884
   O      0           -2.942  -10.857  -14.038
   H      0            0.857  -11.862  -12.260
   H      0           -0.272  -13.239  -12.427
   H      0           -1.318  -12.286  -10.770
   H      0           -0.548  -10.612  -13.713
   H      0           -0.229  -11.954  -14.441
   H      0           -3.388  -13.263  -13.987
   H      0           -1.980  -13.702  -13.777
   C     -1           -7.470  -18.460  -13.007
   C     -1           -8.184  -17.166  -13.417
   C      0           -7.706  -16.528  -14.743
   C      0           -6.771  -15.357  -14.564
   O      0           -5.962  -15.379  -13.616
   O      0           -6.831  -14.403  -15.371
   H      0           -8.103  -19.023  -12.321
   H      0           -6.529  -18.215  -12.514
   H      0           -7.269  -19.061  -13.894
   H      0           -9.134  -17.349  -13.489
   H      0           -8.073  -16.516  -12.706
   H      0           -7.261  -17.206  -15.275
   H      0           -8.481  -16.236  -15.248
  MG      0           -5.179  -10.868  -13.937
   N      0           -9.436   -7.062  -12.623
   C      0          -10.413   -7.764  -13.503
   C      0          -10.999   -9.000  -12.829
   O      0          -10.325   -9.744  -12.109
   C      0           -9.747   -8.222  -14.800
   C      0           -8.997   -7.141  -15.564
   S      0           -8.416   -7.793  -17.147
   C      0           -7.044   -8.840  -16.583
   C      0           -7.344   -6.494  -17.854
   C      0           -8.113   -5.220  -18.168
   O      0           -7.308   -4.061  -18.074
   C      0           -8.715   -5.258  -19.571
   O      0          -10.114   -5.088  -19.415
   C      0           -8.002   -4.128  -20.312
   O      0           -8.822   -3.498  -21.252
   C      0           -7.619   -3.196  -19.162
   O      0          -12.176   -9.300  -13.006
   N      0           -5.808    1.534  -18.182
   C      0           -7.031    0.987  -17.825
   N      0           -7.317   -0.302  -18.197
   C      0           -6.423   -1.018  -18.906
   C      0           -5.202   -0.487  -19.289
   C      0           -4.898    0.815  -18.920
   N      0           -3.738    1.365  -19.259
   N      0           -4.531   -1.437  -19.974
   C      0           -5.302   -2.543  -20.047
   N      0           -6.477   -2.290  -19.395
   H      0           -3.164    0.913  -19.713
   H      0           -3.560    2.173  -19.025
   H      0          -11.119   -7.125  -13.687
   H      0          -10.428   -8.595  -15.382
   H      0           -9.128   -8.939  -14.592
   H      0           -8.244   -6.827  -15.039
   H      0           -9.577   -6.378  -15.713
   H      0           -7.250   -9.199  -15.706
   H      0           -6.232   -8.311  -16.533
   H      0           -6.916   -9.570  -17.208
   H      0           -9.415   -3.056  -20.855
   H      0          -10.265   -4.377  -18.994
   H      0           -7.675    1.508  -17.320
   H      0           -5.063   -3.374  -20.486
   H      0           -9.156   -7.677  -11.872
   H      0           -8.363   -2.591  -19.015
   H      0           -9.865   -6.233  -12.238
   H      0           -8.624   -6.800  -13.164
   H      0           -7.248   -4.429  -20.842
   H      0           -8.598   -6.078  -20.075
   H      0           -8.816   -5.176  -17.501
   H      0           -6.928   -6.826  -18.665
   H      0           -6.629   -6.292  -17.230
   C      0           -4.540  -12.555  -16.207
   O      0           -4.979  -12.746  -14.930
   C      0           -4.419  -11.187  -16.751
   O      0           -4.730  -10.119  -15.972
   C      0           -3.946  -11.022  -18.139
   C      0           -3.639  -12.157  -18.876
   C      0           -3.773  -13.433  -18.328
   C      0           -4.211  -13.629  -17.016
   H      0           -3.830  -10.029  -18.573
   H      0           -3.507  -14.296  -18.939
   H      0           -4.295  -14.642  -16.624
   H      0           -4.661  -13.592  -14.605
   H      0           -3.287  -12.050  -19.902
   O      0          -13.932   -9.341  -15.012
   H      0          -14.650   -9.118  -15.609
   H      0          -13.637  -10.238  -15.186
   O      0           -7.217  -11.001  -13.835
   H      0           -7.701  -11.669  -13.344
   H      0           -7.111  -10.217  -13.291
   O      0           -2.436   -0.077  -21.143
   H      0           -2.025   -0.745  -20.589
   H      0           -2.643   -0.455  -22.001

