%nproc=24
%mem=15GB
%chk=1.chk
#P b3lyp/genecp freq EmpiricalDispersion=GD3BJ scrf(cpcm,read,solvent=water) gfinput scf=(xqc,maxcon=128,maxcyc=128) geom(check)

3koi-fe-mod1-s1.car

0 1

Fe     0
S   3   1.00
      0.6422000000E+01      -0.3927882000E+00
      0.1826000000E+01       0.7712643000E+00
      0.7135000000E+00       0.4920228000E+00
S   4   1.00
      0.6422000000E+01       0.1786877000E+00
      0.1826000000E+01      -0.4194032000E+00
      0.7135000000E+00      -0.4568185000E+00
      0.1021000000E+00       0.1103505000E+01
S   1   1.00
      0.3630000000E-01       0.1000000000E+01
P   3   1.00
      0.1948000000E+02      -0.4702820000E-01
      0.2389000000E+01       0.6248841000E+00
      0.7795000000E+00       0.4722542000E+00
P   4   1.00
      0.1948000000E+02       0.8954160000E-02
      0.2389000000E+01      -0.1449986400E+00
      0.7795000000E+00      -0.2959800000E-01
      0.7400000000E-01       0.9118691300E+00
P   1   1.00
      0.2200000000E-01       0.1000000000E+01
D   4   1.00
      0.3708000000E+02       0.3290000000E-01
      0.1010000000E+02       0.1787418000E+00
      0.3220000000E+01       0.4487657000E+00
      0.9628000000E+00       0.5876361000E+00
D   1   1.00
      0.2262000000E+00       0.1000000000E+01
****
O     0
6-31G(d')
****
N     0
6-31G(d')
****
C     0
6-31G(d')
****
H     0
6-31G(d')
****

Fe
lanl2dz

radii=uaks
alpha=1.2
eps=4.0


