%chk=1.chk
%mem=4GB
%nproc=24
#P b3lyp/genecp opt(ts,noeigen,readfc) freq gfinput scf=(xqc,maxcon=128,maxcyc=128) guess=read

comt-m2-ts-001.car

-1 1
C      -1  -8.279913902   -2.945983648  -15.180009842
C      -1 -11.980088234   -3.800018311  -14.707989693
C      -1 -15.596997261   -9.745998383  -11.521000862
C      -1 -12.940057755   -8.326921463   -9.214908600
C      -1  -4.605011463   -6.138938427  -12.907862663
C      -1  -5.772052765   -6.875980377  -12.258925438
C      -1  -2.177036285   -9.999904633   -9.943798065
C      -1  -3.563030958  -10.061883926  -10.584756851
C      -1  -0.185935050  -12.152917862  -12.385696411
C       0  -9.511941910   -3.784077168  -14.883558273
O       0  -9.431084633   -4.976685047  -14.555590630
N       0 -10.710959435   -3.138955593  -15.006620407
C       0 -14.974850655   -8.796418190  -10.523006439
O       0 -15.653744698   -7.879802227  -10.006738663
N       0 -13.680997849   -9.035595894  -10.253371239
C       0 -12.753665924   -6.815481663   -9.445353508
O       0 -13.881163597   -6.026694298   -9.050593376
C       0  -6.201818943   -8.109187126  -13.052817345
O       0  -5.314572334   -8.995660782  -13.302871704
O       0  -7.419041157   -8.203515053  -13.411999702
C       0  -1.048984647  -10.350586891  -10.929539680
O       0  -0.336879015   -9.493506432  -11.463804245
C       0  -4.082958221  -11.499106407  -10.837126732
O       0  -3.473683119  -12.482130051  -10.355337143
O       0  -5.149245739  -11.588475227  -11.556991577
N       0  -0.910399199  -11.696427345  -11.193765640
C       0  -0.921030879  -11.754613876  -13.701766968
C       0  -2.406741619  -12.101937294  -13.694360733
O       0  -3.277887344  -11.213491440  -13.776121140
N       0  -2.731682777  -13.414878845  -13.609125137
Mg      0  -5.441941261  -11.027036667  -13.454213142
N       0 -10.269341469   -8.360708237  -11.982669830
C       0 -11.062561989   -9.305196762  -12.786869049
C       0 -11.038905144  -10.684249878  -12.033014297
O       0  -9.949659348  -11.330034256  -12.089416504
O       0 -12.092660904  -11.018364906  -11.422626495
C       0 -10.579292297   -9.550829887  -14.254048347
C       0 -10.203316689   -8.254389763  -14.971917152
S       0  -9.497362137   -8.609684944  -16.653484344
C       0  -7.602231979  -10.064453125  -16.071269989
C       0  -8.849936485   -6.962135792  -17.167083740
C       0  -9.972587585   -5.983628273  -17.478599548
O       0  -9.362612724   -4.743056297  -17.924674988
C       0 -10.943293571   -6.325198174  -18.629741669
O       0 -12.009325981   -7.182958126  -18.246528625
C       0 -11.439502716   -4.910582066  -19.087118149
O       0 -12.762800217   -4.653808594  -18.580307007
C       0 -10.474360466   -3.932461977  -18.368640900
N       0  -9.982955933   -2.822252274  -19.140056610
C       0  -9.348335266   -2.843158484  -20.381137848
N       0  -8.958950043   -1.655838609  -20.785396576
C       0  -9.335919380   -0.800731122  -19.759799957
C       0  -9.192402840    0.592848897  -19.584728241
N       0  -8.633702278    1.391546011  -20.529598236
N       0  -9.647475243    1.157447815  -18.443546295
C       0 -10.219783783    0.358274311  -17.525177002
N       0 -10.418459892   -0.971148014  -17.569414139
C       0  -9.959028244   -1.500481844  -18.717239380
C       0  -6.242002964  -13.690381050  -14.763699532
O       0  -5.692533970  -13.245416641  -13.559075356
C       0  -6.145122051  -12.672860146  -15.802837372
O       0  -5.707101822  -11.519220352  -15.489056587
C       0  -6.593175411  -13.118019104  -17.103891373
N       0  -6.549763203  -12.252416611  -18.271419525
O       0  -6.047393799  -11.133097649  -18.169918060
O       0  -7.022509098  -12.681952477  -19.327682495
C       0  -7.104090214  -14.406321526  -17.305313110
C       0  -7.179888725  -15.305075645  -16.254062653
N       0  -7.698517323  -16.640077591  -16.484453201
O       0  -8.081215858  -16.930566788  -17.617265701
O       0  -7.722759724  -17.416587830  -15.528471947
C       0  -6.729454517  -14.951843262  -14.957475662
O       0  -7.553424358  -10.870505333  -13.313187599
H       0  -8.509634018   -1.892879367  -15.358726501
H       0  -7.778833866   -3.354666948  -16.062759399
H       0  -7.588168144   -3.027081013  -14.336457253
H       0 -10.724989891   -2.224892855  -15.444145203
H       0 -11.771926880   -4.659730911  -14.069590569
H       0 -12.643245697   -3.112721443  -14.174906731
H       0 -12.495058060   -4.144879341  -15.615128517
H       0 -16.098550797   -9.172519684  -12.307682991
H       0 -14.862095833  -10.421331406  -11.966977119
H       0 -16.366094589  -10.344275475  -11.018557549
H       0 -13.428909302   -8.464303017   -8.240032196
H       0 -13.174263954   -9.799489975  -10.739702225
H       0 -11.956436157   -8.803854942   -9.181695938
H       0 -11.906620979   -6.471633911   -8.838849068
H       0 -12.483311653   -6.658025265  -10.502158165
H       0 -14.671435356   -6.528995514   -9.343057632
H       0  -4.883817673   -5.747446537  -13.894546509
H       0  -3.753623962   -6.812918186  -13.043331146
H       0  -5.480045319   -7.219279766  -11.256864548
H       0  -6.644045830   -6.224454880  -12.150469780
H       0  -4.279770374   -5.291789055  -12.291882515
H       0  -2.147840261  -10.685239792   -9.088961601
H       0  -4.294640064   -9.576049805   -9.923026085
H       0  -3.597603798   -9.510985374  -11.530129433
H       0  -1.968938231   -8.985918999   -9.589617729
H       0   0.807139158  -11.695019722  -12.395476341
H       0  -1.686625004  -12.269282341  -10.846055984
H       0  -0.059946116  -13.239037514  -12.306706429
H       0  -0.849471331  -10.672537804  -13.822139740
H       0  -0.432969332  -12.235375404  -14.560811996
H       0  -3.704951286  -13.638088226  -13.414690018
H       0  -2.028750896  -14.089948654  -13.349047661
H       0 -12.663186073   -6.618598461  -17.798814774
H       0 -13.413469315   -4.930846691  -19.239820480
H       0  -8.417700768    2.342650414  -20.271118164
H       0  -8.137019157    0.966943145  -21.297836304
H       0  -8.242124557   -6.575088501  -16.344203949
H       0  -8.222106934   -7.136632442  -18.046821594
H       0 -10.242723465   -7.432463646  -12.399096489
H       0  -9.304684639   -8.679705620  -11.925164223
H       0 -11.075012207   -7.622185707  -15.166007996
H       0  -9.439924240   -7.691809177  -14.426980972
H       0  -7.219120979   -9.296039581  -15.398291588
H       0  -8.294589996  -10.812175751  -15.685938835
H       0  -7.280122280  -10.061976433  -17.113561630
H       0  -9.716979027  -10.217311859  -14.187535286
H       0 -11.371505737  -10.082568169  -14.798214912
H       0 -12.094621658   -8.940251350  -12.802761078
H       0  -9.194993973   -3.764285326  -20.922767639
H       0 -10.545708656   -5.790147305  -16.563203812
H       0 -10.406111717   -6.826357841  -19.440093994
H       0 -11.411260605   -4.793099403  -20.174077988
H       0 -10.563637733    0.858362079  -16.624776840
H       0 -11.000112534   -3.507609606  -17.507944107
H       0  -6.777101040  -15.680452347  -14.158093452
H       0  -7.438671589  -14.694989204  -18.290878296
H       0  -8.331871986  -11.169760704  -12.772406578
H       0  -7.654168129   -9.887911797  -13.384507179
H       0  -6.173813343  -13.498864174  -12.755371094

Mg     0
S   2   1.00
      0.7250000             -0.4058454
      0.1112000              1.1688704
S   1   1.00
      0.0404000              1.0000000
P   2   1.00
      1.2400000             -0.0749753
      0.1346000              1.0178183
P   1   1.00
      0.0422000              1.0000000
****
S     0
6-31G(d')
****
O     0
6-31G(d')
****
N     0
6-31G(d')
****
C     0
6-31G
****
H     0
6-31G
****

Mg
lanl2dz


